!-Generator IDFEditor 1.51
!-Option SortedOrder

!-NOTE: All comments with '!-' are ignored by the IDFEditor and are generated automatically.
!-      Use '!' comments if they need to be retained when using the IDFEditor.


!-   ===========  ALL OBJECTS IN CLASS: VERSION ===========

Version,
    9.4;                     !- Version Identifier


!-   ===========  ALL OBJECTS IN CLASS: SIMULATIONCONTROL ===========

SimulationControl,
    No,                      !- Do Zone Sizing Calculation
    No,                      !- Do System Sizing Calculation
    No,                      !- Do Plant Sizing Calculation
    No,                      !- Run Simulation for Sizing Periods
    Yes,                     !- Run Simulation for Weather File Run Periods
    No,                      !- Do HVAC Sizing Simulation for Sizing Periods
    1;                       !- Maximum Number of HVAC Sizing Simulation Passes


!-   ===========  ALL OBJECTS IN CLASS: BUILDING ===========

Building,
    Building 1,              !- Name
    180,                     !- North Axis {deg}
    Suburbs,                 !- Terrain
    ,                        !- Loads Convergence Tolerance Value {W}
    ,                        !- Temperature Convergence Tolerance Value {deltaC}
    ,                        !- Solar Distribution
    ,                        !- Maximum Number of Warmup Days
    ;                        !- Minimum Number of Warmup Days


!-   ===========  ALL OBJECTS IN CLASS: SHADOWCALCULATION ===========

ShadowCalculation,
    PolygonClipping,         !- Shading Calculation Method
    Periodic,                !- Shading Calculation Update Frequency Method
    20,                      !- Shading Calculation Update Frequency
    200;                     !- Maximum Figures in Shadow Overlap Calculations


!-   ===========  ALL OBJECTS IN CLASS: SURFACECONVECTIONALGORITHM:INSIDE ===========

SurfaceConvectionAlgorithm:Inside,
    TARP;                    !- Algorithm


!-   ===========  ALL OBJECTS IN CLASS: SURFACECONVECTIONALGORITHM:OUTSIDE ===========

SurfaceConvectionAlgorithm:Outside,
    DOE-2;                   !- Algorithm


!-   ===========  ALL OBJECTS IN CLASS: HEATBALANCEALGORITHM ===========

HeatBalanceAlgorithm,
    ConductionTransferFunction,  !- Algorithm
    200;                     !- Surface Temperature Upper Limit {C}


!-   ===========  ALL OBJECTS IN CLASS: ZONECAPACITANCEMULTIPLIER:RESEARCHSPECIAL ===========

ZoneCapacitanceMultiplier:ResearchSpecial,
    Zone Capacitance Multiplier Research Special,  !- Name
    ,                        !- Zone or ZoneList Name
    ,                        !- Temperature Capacity Multiplier
    15,                      !- Humidity Capacity Multiplier
    ,                        !- Carbon Dioxide Capacity Multiplier
    ;                        !- Generic Contaminant Capacity Multiplier


!-   ===========  ALL OBJECTS IN CLASS: TIMESTEP ===========

Timestep,
    6;                       !- Number of Timesteps per Hour


!-   ===========  ALL OBJECTS IN CLASS: SITE:LOCATION ===========

Site:Location,
    Baltimore Blt Washngtn IntL_MD_USA,  !- Name
    39.17,                   !- Latitude {deg}
    -76.68,                  !- Longitude {deg}
    -5,                      !- Time Zone {hr}
    45;                      !- Elevation {m}


!-   ===========  ALL OBJECTS IN CLASS: RUNPERIOD ===========

RunPeriod,
    Run Period 1,            !- Name
    1,                       !- Begin Month
    1,                       !- Begin Day of Month
    2007,                    !- Begin Year
    12,                      !- End Month
    31,                      !- End Day of Month
    2007,                    !- End Year
    Monday,                  !- Day of Week for Start Day
    No,                      !- Use Weather File Holidays and Special Days
    No,                      !- Use Weather File Daylight Saving Period
    No,                      !- Apply Weekend Holiday Rule
    Yes,                     !- Use Weather File Rain Indicators
    Yes;                     !- Use Weather File Snow Indicators


!-   ===========  ALL OBJECTS IN CLASS: RUNPERIODCONTROL:DAYLIGHTSAVINGTIME ===========

RunPeriodControl:DaylightSavingTime,
    4/7,                     !- Start Date
    10/26;                   !- End Date


!-   ===========  ALL OBJECTS IN CLASS: SITE:GROUNDTEMPERATURE:DEEP ===========

Site:GroundTemperature:Deep,
    13.2088127853881,        !- January Deep Ground Temperature {C}
    13.2088127853881,        !- February Deep Ground Temperature {C}
    13.2088127853881,        !- March Deep Ground Temperature {C}
    13.2088127853881,        !- April Deep Ground Temperature {C}
    13.2088127853881,        !- May Deep Ground Temperature {C}
    13.2088127853881,        !- June Deep Ground Temperature {C}
    13.2088127853881,        !- July Deep Ground Temperature {C}
    13.2088127853881,        !- August Deep Ground Temperature {C}
    13.2088127853881,        !- September Deep Ground Temperature {C}
    13.2088127853881,        !- October Deep Ground Temperature {C}
    13.2088127853881,        !- November Deep Ground Temperature {C}
    13.2088127853881;        !- December Deep Ground Temperature {C}


!-   ===========  ALL OBJECTS IN CLASS: SITE:WATERMAINSTEMPERATURE ===========

Site:WaterMainsTemperature,
    Correlation,             !- Calculation Method
    ,                        !- Temperature Schedule Name
    13.2088127853881,        !- Annual Average Outdoor Air Temperature {C}
    25.8553763440861;        !- Maximum Difference In Monthly Average Outdoor Air Temperatures {deltaC}


!-   ===========  ALL OBJECTS IN CLASS: SCHEDULETYPELIMITS ===========

ScheduleTypeLimits,
    Fractional,              !- Name
    0,                       !- Lower Limit Value
    1,                       !- Upper Limit Value
    Continuous;              !- Numeric Type

ScheduleTypeLimits,
    finished basement zone Thermostat Schedule Type Limits,  !- Name
    0,                       !- Lower Limit Value
    4,                       !- Upper Limit Value
    DISCRETE;                !- Numeric Type

ScheduleTypeLimits,
    Temperature,             !- Name
    ,                        !- Lower Limit Value
    ,                        !- Upper Limit Value
    Continuous,              !- Numeric Type
    temperature;             !- Unit Type

ScheduleTypeLimits,
    living zone Thermostat Schedule Type Limits,  !- Name
    0,                       !- Lower Limit Value
    4,                       !- Upper Limit Value
    DISCRETE;                !- Numeric Type

ScheduleTypeLimits,
    ActivityLevel,           !- Name
    0,                       !- Lower Limit Value
    ,                        !- Upper Limit Value
    Continuous,              !- Numeric Type
    activitylevel;           !- Unit Type

ScheduleTypeLimits,
    Dimensionless,           !- Name
    ,                        !- Lower Limit Value
    ,                        !- Upper Limit Value
    Continuous;              !- Numeric Type

ScheduleTypeLimits,
    FRACTION,                !- Name
    0,                       !- Lower Limit Value
    1,                       !- Upper Limit Value
    Continuous;              !- Numeric Type

ScheduleTypeLimits,
    OnOff,                   !- Name
    0,                       !- Lower Limit Value
    1,                       !- Upper Limit Value
    Discrete,                !- Numeric Type
    availability;            !- Unit Type

ScheduleTypeLimits,
    OnOff 1,                 !- Name
    0,                       !- Lower Limit Value
    1,                       !- Upper Limit Value
    Discrete,                !- Numeric Type
    availability;            !- Unit Type

ScheduleTypeLimits,
    OnOff 2,                 !- Name
    0,                       !- Lower Limit Value
    1,                       !- Upper Limit Value
    Discrete;                !- Numeric Type


!-   ===========  ALL OBJECTS IN CLASS: SCHEDULE:DAY:INTERVAL ===========

Schedule:Day:Interval,
    residential lighting schedule allday1,  !- Name
    Fractional,              !- Schedule Type Limits Name
    No,                      !- Interpolate to Timestep
    01:00,                   !- Time 1 {hh:mm}
    0.123301899622052,       !- Value Until Time 1
    02:00,                   !- Time 2 {hh:mm}
    0.073981139773231,       !- Value Until Time 2
    04:00,                   !- Time 3 {hh:mm}
    0.0493207598488207,      !- Value Until Time 3
    05:00,                   !- Time 4 {hh:mm}
    0.0548335861020384,      !- Value Until Time 4
    06:00,                   !- Time 5 {hh:mm}
    0.150456927458044,       !- Value Until Time 5
    07:00,                   !- Time 6 {hh:mm}
    0.353231332498037,       !- Value Until Time 6
    08:00,                   !- Time 7 {hh:mm}
    0.447005145359712,       !- Value Until Time 7
    09:00,                   !- Time 8 {hh:mm}
    0.475040923438407,       !- Value Until Time 8
    10:00,                   !- Time 9 {hh:mm}
    0.488308849748576,       !- Value Until Time 9
    11:00,                   !- Time 10 {hh:mm}
    0.475032068399439,       !- Value Until Time 10
    12:00,                   !- Time 11 {hh:mm}
    0.45663744783128,        !- Value Until Time 11
    13:00,                   !- Time 12 {hh:mm}
    0.443360666482143,       !- Value Until Time 12
    14:00,                   !- Time 13 {hh:mm}
    0.439453778843448,       !- Value Until Time 13
    15:00,                   !- Time 14 {hh:mm}
    0.444485879391133,       !- Value Until Time 14
    16:00,                   !- Time 15 {hh:mm}
    0.477859599929085,       !- Value Until Time 15
    17:00,                   !- Time 16 {hh:mm}
    0.574395192109361,       !- Value Until Time 16
    18:00,                   !- Time 17 {hh:mm}
    0.759343078446501,       !- Value Until Time 17
    19:00,                   !- Time 18 {hh:mm}
    0.953503732712856,       !- Value Until Time 18
    20:00,                   !- Time 19 {hh:mm}
    1,                       !- Value Until Time 19
    21:00,                   !- Time 20 {hh:mm}
    0.854288873055933,       !- Value Until Time 20
    22:00,                   !- Time 21 {hh:mm}
    0.647696280215332,       !- Value Until Time 21
    23:00,                   !- Time 22 {hh:mm}
    0.556940790739659,       !- Value Until Time 22
    24:00,                   !- Time 23 {hh:mm}
    0.248320849374658;       !- Value Until Time 23

Schedule:Day:Interval,
    residential lighting schedule allday2,  !- Name
    Fractional,              !- Schedule Type Limits Name
    No,                      !- Interpolate to Timestep
    01:00,                   !- Time 1 {hh:mm}
    0.123301899622052,       !- Value Until Time 1
    02:00,                   !- Time 2 {hh:mm}
    0.073981139773231,       !- Value Until Time 2
    04:00,                   !- Time 3 {hh:mm}
    0.0493207598488207,      !- Value Until Time 3
    05:00,                   !- Time 4 {hh:mm}
    0.0545515551791292,      !- Value Until Time 4
    06:00,                   !- Time 5 {hh:mm}
    0.149050596759899,       !- Value Until Time 5
    07:00,                   !- Time 6 {hh:mm}
    0.349929656232067,       !- Value Until Time 6
    08:00,                   !- Time 7 {hh:mm}
    0.442826959158723,       !- Value Until Time 7
    09:00,                   !- Time 8 {hh:mm}
    0.468321203657672,       !- Value Until Time 8
    10:00,                   !- Time 9 {hh:mm}
    0.479185632460205,       !- Value Until Time 9
    11:00,                   !- Time 10 {hh:mm}
    0.466032950050872,       !- Value Until Time 10
    12:00,                   !- Time 11 {hh:mm}
    0.447810265198954,       !- Value Until Time 11
    13:00,                   !- Time 12 {hh:mm}
    0.434657582789621,       !- Value Until Time 12
    14:00,                   !- Time 13 {hh:mm}
    0.430787213084087,       !- Value Until Time 13
    15:00,                   !- Time 14 {hh:mm}
    0.433030198528305,       !- Value Until Time 14
    16:00,                   !- Time 15 {hh:mm}
    0.450602389054701,       !- Value Until Time 15
    17:00,                   !- Time 16 {hh:mm}
    0.50904025172761,        !- Value Until Time 16
    18:00,                   !- Time 17 {hh:mm}
    0.644221447884486,       !- Value Until Time 17
    19:00,                   !- Time 18 {hh:mm}
    0.836597610350637,       !- Value Until Time 18
    20:00,                   !- Time 19 {hh:mm}
    0.969663294368321,       !- Value Until Time 19
    21:00,                   !- Time 20 {hh:mm}
    0.930766239810335,       !- Value Until Time 20
    22:00,                   !- Time 21 {hh:mm}
    0.75487886518834,        !- Value Until Time 21
    23:00,                   !- Time 22 {hh:mm}
    0.668840758499823,       !- Value Until Time 22
    24:00,                   !- Time 23 {hh:mm}
    0.248320849374658;       !- Value Until Time 23

Schedule:Day:Interval,
    residential lighting schedule allday3,  !- Name
    Fractional,              !- Schedule Type Limits Name
    No,                      !- Interpolate to Timestep
    01:00,                   !- Time 1 {hh:mm}
    0.123301899622052,       !- Value Until Time 1
    02:00,                   !- Time 2 {hh:mm}
    0.073981139773231,       !- Value Until Time 2
    04:00,                   !- Time 3 {hh:mm}
    0.0493207598488207,      !- Value Until Time 3
    05:00,                   !- Time 4 {hh:mm}
    0.0537810323981676,      !- Value Until Time 4
    06:00,                   !- Time 5 {hh:mm}
    0.145208429988578,       !- Value Until Time 5
    07:00,                   !- Time 6 {hh:mm}
    0.340909309271361,       !- Value Until Time 6
    08:00,                   !- Time 7 {hh:mm}
    0.431411942614606,       !- Value Until Time 7
    09:00,                   !- Time 8 {hh:mm}
    0.45018188216872,        !- Value Until Time 8
    10:00,                   !- Time 9 {hh:mm}
    0.454699127574141,       !- Value Until Time 9
    11:00,                   !- Time 10 {hh:mm}
    0.441885489760438,       !- Value Until Time 10
    12:00,                   !- Time 11 {hh:mm}
    0.424132542002797,       !- Value Until Time 11
    13:00,                   !- Time 12 {hh:mm}
    0.411318904189095,       !- Value Until Time 12
    14:00,                   !- Time 13 {hh:mm}
    0.407548303328494,       !- Value Until Time 13
    15:00,                   !- Time 14 {hh:mm}
    0.408549781538244,       !- Value Until Time 14
    16:00,                   !- Time 15 {hh:mm}
    0.418201201772213,       !- Value Until Time 15
    17:00,                   !- Time 16 {hh:mm}
    0.453399537691338,       !- Value Until Time 16
    18:00,                   !- Time 17 {hh:mm}
    0.546367923190756,       !- Value Until Time 17
    19:00,                   !- Time 18 {hh:mm}
    0.708330456161815,       !- Value Until Time 18
    20:00,                   !- Time 19 {hh:mm}
    0.875438293232459,       !- Value Until Time 19
    21:00,                   !- Time 20 {hh:mm}
    0.930501353622715,       !- Value Until Time 20
    22:00,                   !- Time 21 {hh:mm}
    0.827565479509395,       !- Value Until Time 21
    23:00,                   !- Time 22 {hh:mm}
    0.510623280690032,       !- Value Until Time 22
    24:00,                   !- Time 23 {hh:mm}
    0.248320849374658;       !- Value Until Time 23

Schedule:Day:Interval,
    residential lighting schedule allday4,  !- Name
    Fractional,              !- Schedule Type Limits Name
    No,                      !- Interpolate to Timestep
    01:00,                   !- Time 1 {hh:mm}
    0.123301899622052,       !- Value Until Time 1
    02:00,                   !- Time 2 {hh:mm}
    0.073981139773231,       !- Value Until Time 2
    04:00,                   !- Time 3 {hh:mm}
    0.0493207598488207,      !- Value Until Time 3
    05:00,                   !- Time 4 {hh:mm}
    0.0527284786942969,      !- Value Until Time 4
    06:00,                   !- Time 5 {hh:mm}
    0.139959932519111,       !- Value Until Time 5
    07:00,                   !- Time 6 {hh:mm}
    0.328587286044685,       !- Value Until Time 6
    08:00,                   !- Time 7 {hh:mm}
    0.4158187398695,         !- Value Until Time 7
    09:00,                   !- Time 8 {hh:mm}
    0.425921962315854,       !- Value Until Time 8
    10:00,                   !- Time 9 {hh:mm}
    0.422287648233347,       !- Value Until Time 9
    11:00,                   !- Time 10 {hh:mm}
    0.40993715395508,        !- Value Until Time 10
    12:00,                   !- Time 11 {hh:mm}
    0.392825879007956,       !- Value Until Time 11
    13:00,                   !- Time 12 {hh:mm}
    0.380475384729688,       !- Value Until Time 12
    14:00,                   !- Time 13 {hh:mm}
    0.376841070647182,       !- Value Until Time 13
    15:00,                   !- Time 14 {hh:mm}
    0.376589971922063,       !- Value Until Time 14
    16:00,                   !- Time 15 {hh:mm}
    0.377626325092601,       !- Value Until Time 15
    17:00,                   !- Time 16 {hh:mm}
    0.383211288160957,       !- Value Until Time 16
    18:00,                   !- Time 17 {hh:mm}
    0.405663571888762,       !- Value Until Time 17
    19:00,                   !- Time 18 {hh:mm}
    0.469862823248446,       !- Value Until Time 18
    20:00,                   !- Time 19 {hh:mm}
    0.597051212065115,       !- Value Until Time 19
    21:00,                   !- Time 20 {hh:mm}
    0.761123785392462,       !- Value Until Time 20
    22:00,                   !- Time 21 {hh:mm}
    0.871759246760973,       !- Value Until Time 21
    23:00,                   !- Time 22 {hh:mm}
    0.599598468141207,       !- Value Until Time 22
    24:00,                   !- Time 23 {hh:mm}
    0.248320849374658;       !- Value Until Time 23

Schedule:Day:Interval,
    residential lighting schedule allday5,  !- Name
    Fractional,              !- Schedule Type Limits Name
    No,                      !- Interpolate to Timestep
    01:00,                   !- Time 1 {hh:mm}
    0.123301899622052,       !- Value Until Time 1
    02:00,                   !- Time 2 {hh:mm}
    0.073981139773231,       !- Value Until Time 2
    04:00,                   !- Time 3 {hh:mm}
    0.0493207598488207,      !- Value Until Time 3
    05:00,                   !- Time 4 {hh:mm}
    0.0516759249904261,      !- Value Until Time 4
    06:00,                   !- Time 5 {hh:mm}
    0.134711435049644,       !- Value Until Time 5
    07:00,                   !- Time 6 {hh:mm}
    0.31626526281801,        !- Value Until Time 6
    08:00,                   !- Time 7 {hh:mm}
    0.400225537124393,       !- Value Until Time 7
    09:00,                   !- Time 8 {hh:mm}
    0.402261163879808,       !- Value Until Time 8
    10:00,                   !- Time 9 {hh:mm}
    0.391074411726195,       !- Value Until Time 9
    11:00,                   !- Time 10 {hh:mm}
    0.379187060983363,       !- Value Until Time 10
    12:00,                   !- Time 11 {hh:mm}
    0.362717458846756,       !- Value Until Time 11
    13:00,                   !- Time 12 {hh:mm}
    0.350830108103923,       !- Value Until Time 12
    14:00,                   !- Time 13 {hh:mm}
    0.347332080799511,       !- Value Until Time 13
    15:00,                   !- Time 14 {hh:mm}
    0.347060401749325,       !- Value Until Time 14
    16:00,                   !- Time 15 {hh:mm}
    0.347744693890424,       !- Value Until Time 15
    17:00,                   !- Time 16 {hh:mm}
    0.351373311889918,       !- Value Until Time 16
    18:00,                   !- Time 17 {hh:mm}
    0.366193084465836,       !- Value Until Time 17
    19:00,                   !- Time 18 {hh:mm}
    0.410669581460887,       !- Value Until Time 18
    20:00,                   !- Time 19 {hh:mm}
    0.506938074018606,       !- Value Until Time 19
    21:00,                   !- Time 20 {hh:mm}
    0.651366563916127,       !- Value Until Time 20
    22:00,                   !- Time 21 {hh:mm}
    0.785877407046468,       !- Value Until Time 21
    23:00,                   !- Time 22 {hh:mm}
    0.580106425706453,       !- Value Until Time 22
    24:00,                   !- Time 23 {hh:mm}
    0.248320849374658;       !- Value Until Time 23

Schedule:Day:Interval,
    residential lighting schedule allday6,  !- Name
    Fractional,              !- Schedule Type Limits Name
    No,                      !- Interpolate to Timestep
    01:00,                   !- Time 1 {hh:mm}
    0.123301899622052,       !- Value Until Time 1
    02:00,                   !- Time 2 {hh:mm}
    0.073981139773231,       !- Value Until Time 2
    04:00,                   !- Time 3 {hh:mm}
    0.0493207598488207,      !- Value Until Time 3
    05:00,                   !- Time 4 {hh:mm}
    0.0509054022094646,      !- Value Until Time 4
    06:00,                   !- Time 5 {hh:mm}
    0.130869268278323,       !- Value Until Time 5
    07:00,                   !- Time 6 {hh:mm}
    0.307244915857303,       !- Value Until Time 6
    08:00,                   !- Time 7 {hh:mm}
    0.388810520580276,       !- Value Until Time 7
    09:00,                   !- Time 8 {hh:mm}
    0.385320085208789,       !- Value Until Time 8
    10:00,                   !- Time 9 {hh:mm}
    0.368984392475998,       !- Value Until Time 9
    11:00,                   !- Time 10 {hh:mm}
    0.357436086328795,       !- Value Until Time 10
    12:00,                   !- Time 11 {hh:mm}
    0.341436221286466,       !- Value Until Time 11
    13:00,                   !- Time 12 {hh:mm}
    0.329887915139263,       !- Value Until Time 12
    14:00,                   !- Time 13 {hh:mm}
    0.326489656679784,       !- Value Until Time 13
    15:00,                   !- Time 14 {hh:mm}
    0.326226229828919,       !- Value Until Time 14
    16:00,                   !- Time 15 {hh:mm}
    0.326839843723081,       !- Value Until Time 15
    17:00,                   !- Time 16 {hh:mm}
    0.329865738628581,       !- Value Until Time 16
    18:00,                   !- Time 17 {hh:mm}
    0.341737309034745,       !- Value Until Time 17
    19:00,                   !- Time 18 {hh:mm}
    0.376948776244353,       !- Value Until Time 18
    20:00,                   !- Time 19 {hh:mm}
    0.454729920797851,       !- Value Until Time 19
    21:00,                   !- Time 20 {hh:mm}
    0.578932319215636,       !- Value Until Time 20
    22:00,                   !- Time 21 {hh:mm}
    0.712164604312652,       !- Value Until Time 21
    23:00,                   !- Time 22 {hh:mm}
    0.553216070596744,       !- Value Until Time 22
    24:00,                   !- Time 23 {hh:mm}
    0.248320849374658;       !- Value Until Time 23

Schedule:Day:Interval,
    residential lighting schedule allday7,  !- Name
    Fractional,              !- Schedule Type Limits Name
    No,                      !- Interpolate to Timestep
    01:00,                   !- Time 1 {hh:mm}
    0.123301899622052,       !- Value Until Time 1
    02:00,                   !- Time 2 {hh:mm}
    0.073981139773231,       !- Value Until Time 2
    04:00,                   !- Time 3 {hh:mm}
    0.0493207598488207,      !- Value Until Time 3
    05:00,                   !- Time 4 {hh:mm}
    0.0506233712865554,      !- Value Until Time 4
    06:00,                   !- Time 5 {hh:mm}
    0.129462937580178,       !- Value Until Time 5
    07:00,                   !- Time 6 {hh:mm}
    0.303943239591334,       !- Value Until Time 6
    08:00,                   !- Time 7 {hh:mm}
    0.384632334379287,       !- Value Until Time 7
    09:00,                   !- Time 8 {hh:mm}
    0.379199486860584,       !- Value Until Time 8
    10:00,                   !- Time 9 {hh:mm}
    0.361059418052685,       !- Value Until Time 9
    11:00,                   !- Time 10 {hh:mm}
    0.349635210845288,       !- Value Until Time 10
    12:00,                   !- Time 11 {hh:mm}
    0.333807281519198,       !- Value Until Time 11
    13:00,                   !- Time 12 {hh:mm}
    0.3223830743118,         !- Value Until Time 12
    14:00,                   !- Time 13 {hh:mm}
    0.319021333785482,       !- Value Until Time 13
    15:00,                   !- Time 14 {hh:mm}
    0.31876303528883,        !- Value Until Time 14
    16:00,                   !- Time 15 {hh:mm}
    0.319387811512541,       !- Value Until Time 15
    17:00,                   !- Time 16 {hh:mm}
    0.322459918167366,       !- Value Until Time 16
    18:00,                   !- Time 17 {hh:mm}
    0.334479424367614,       !- Value Until Time 17
    19:00,                   !- Time 18 {hh:mm}
    0.370027032509051,       !- Value Until Time 18
    20:00,                   !- Time 19 {hh:mm}
    0.448308596327691,       !- Value Until Time 19
    21:00,                   !- Time 20 {hh:mm}
    0.572870061816426,       !- Value Until Time 20
    22:00,                   !- Time 21 {hh:mm}
    0.705853546212532,       !- Value Until Time 21
    23:00,                   !- Time 22 {hh:mm}
    0.549730694697024,       !- Value Until Time 22
    24:00,                   !- Time 23 {hh:mm}
    0.248320849374658;       !- Value Until Time 23

Schedule:Day:Interval,
    residential lighting schedule allday8,  !- Name
    Fractional,              !- Schedule Type Limits Name
    No,                      !- Interpolate to Timestep
    01:00,                   !- Time 1 {hh:mm}
    0.123301899622052,       !- Value Until Time 1
    02:00,                   !- Time 2 {hh:mm}
    0.073981139773231,       !- Value Until Time 2
    04:00,                   !- Time 3 {hh:mm}
    0.0493207598488207,      !- Value Until Time 3
    05:00,                   !- Time 4 {hh:mm}
    0.0509054022094646,      !- Value Until Time 4
    06:00,                   !- Time 5 {hh:mm}
    0.130869268278323,       !- Value Until Time 5
    07:00,                   !- Time 6 {hh:mm}
    0.307244915857303,       !- Value Until Time 6
    08:00,                   !- Time 7 {hh:mm}
    0.388810520580276,       !- Value Until Time 7
    09:00,                   !- Time 8 {hh:mm}
    0.385320085208789,       !- Value Until Time 8
    10:00,                   !- Time 9 {hh:mm}
    0.368984392475998,       !- Value Until Time 9
    11:00,                   !- Time 10 {hh:mm}
    0.357436086328795,       !- Value Until Time 10
    12:00,                   !- Time 11 {hh:mm}
    0.341436221286466,       !- Value Until Time 11
    13:00,                   !- Time 12 {hh:mm}
    0.329887915139263,       !- Value Until Time 12
    14:00,                   !- Time 13 {hh:mm}
    0.326489656679784,       !- Value Until Time 13
    15:00,                   !- Time 14 {hh:mm}
    0.326248125396642,       !- Value Until Time 14
    16:00,                   !- Time 15 {hh:mm}
    0.327092065432292,       !- Value Until Time 15
    17:00,                   !- Time 16 {hh:mm}
    0.331412529148524,       !- Value Until Time 16
    18:00,                   !- Time 17 {hh:mm}
    0.348463131994006,       !- Value Until Time 17
    19:00,                   !- Time 18 {hh:mm}
    0.397832592507246,       !- Value Until Time 18
    20:00,                   !- Time 19 {hh:mm}
    0.500614060938388,       !- Value Until Time 19
    21:00,                   !- Time 20 {hh:mm}
    0.647869785649981,       !- Value Until Time 20
    22:00,                   !- Time 21 {hh:mm}
    0.775691217792103,       !- Value Until Time 21
    23:00,                   !- Time 22 {hh:mm}
    0.569789858614019,       !- Value Until Time 22
    24:00,                   !- Time 23 {hh:mm}
    0.248320849374658;       !- Value Until Time 23

Schedule:Day:Interval,
    residential lighting schedule allday9,  !- Name
    Fractional,              !- Schedule Type Limits Name
    No,                      !- Interpolate to Timestep
    01:00,                   !- Time 1 {hh:mm}
    0.123301899622052,       !- Value Until Time 1
    02:00,                   !- Time 2 {hh:mm}
    0.073981139773231,       !- Value Until Time 2
    04:00,                   !- Time 3 {hh:mm}
    0.0493207598488207,      !- Value Until Time 3
    05:00,                   !- Time 4 {hh:mm}
    0.0516759249904261,      !- Value Until Time 4
    06:00,                   !- Time 5 {hh:mm}
    0.134711435049644,       !- Value Until Time 5
    07:00,                   !- Time 6 {hh:mm}
    0.31626526281801,        !- Value Until Time 6
    08:00,                   !- Time 7 {hh:mm}
    0.400225537124393,       !- Value Until Time 7
    09:00,                   !- Time 8 {hh:mm}
    0.402261163879808,       !- Value Until Time 8
    10:00,                   !- Time 9 {hh:mm}
    0.391074411726195,       !- Value Until Time 9
    11:00,                   !- Time 10 {hh:mm}
    0.379187060983363,       !- Value Until Time 10
    12:00,                   !- Time 11 {hh:mm}
    0.362717458846756,       !- Value Until Time 11
    13:00,                   !- Time 12 {hh:mm}
    0.350830108103923,       !- Value Until Time 12
    14:00,                   !- Time 13 {hh:mm}
    0.347332080799511,       !- Value Until Time 13
    15:00,                   !- Time 14 {hh:mm}